gmdm/base/dss/testing_base.dss
clear
set defaultbasefrequency=60.0
new Circuit.Main_Xf3_Energy_Source phases=3 bus1=j1 basekv=69.000 pu=1.00000 angle=0.00000 r0=0.00918 x0=0.02755 r1=0.00966 x1=0.03865
set earthmodel=carson

new WireData.Penguin gmr=0.003360 radius=0.007150 rac=0.000266 rdc=0.000261 normamps=357.0 Runits=m Radunits=m gmrunits=m
new WireData.Linnet gmr=0.007437 radius=0.009144 rac=0.000170 rdc=0.000166 normamps=529.0 Runits=m Radunits=m gmrunits=m
new WireData.Hawk gmr=0.008839 radius=0.010897 rac=0.000120 rdc=0.000117 normamps=659.0 Runits=m Radunits=m gmrunits=m

new LineSpacing.PPPN_01_ABC nconds=4 nphases=3 units=m
~ x=[0.0000,0.9000,1.8000,1.1000]
~ h=[15.0000,15.4000,15.0000,14.3000]
new LineSpacing.PN_01_B nconds=2 nphases=1 units=m
~ x=[0.0000,0.1000]
~ h=[12.0000,11.0000]

new Linecode.3P_01 nphases=3 units=mi rmatrix=[0.297273 | 0.102753 0.294494 | 0.103828 0.105296 0.299558 ] xmatrix=[0.942524 | 0.380854 0.962803 | 0.299752 0.362484 0.926145 ] cmatrix=[0.00000 | 0.00000 0.00000 | 0.00000 0.00000 0.00000 ]

new Xfmrcode.2E_7200/7200_01 windings=2 phases=1 xhl=0.029998 %imag=0.001 %noloadloss=0.000
~ wdg=1 conn=w kv=7.200 kva=167.0 %r=0.000050
~ wdg=2 conn=w kv=7.200 kva=167.0 %r=0.000050
new Xfmrcode.2E_12470/480_01 windings=2 phases=3 xhl=1.999984 %imag=0.500 %noloadloss=0.250
~ wdg=1 conn=w kv=12.470 kva=45.0 %r=0.825000
~ wdg=2 conn=w kv=0.480 kva=45.0 %r=0.825000
new Xfmrcode.3E_7200/120/120_02 windings=3 phases=1 xhl=2.040018 xht=2.040018 xlt=1.359982 %imag=0.500 %noloadloss=0.200
~ wdg=1 conn=w kv=7.200 kva=2000.0 %r=0.600000
~ wdg=2 conn=w kv=0.120 kva=2000.0 %r=1.200000
~ wdg=3 conn=w kv=0.120 kva=2000.0 %r=1.200000
new Xfmrcode.3E_7200/120/120_01 windings=3 phases=1 xhl=1.440059 xht=1.440059 xlt=0.959978 %imag=0.000 %noloadloss=0.000
~ wdg=1 conn=w kv=12.470 kva=15.0 %r=0.650000
~ wdg=2 conn=w kv=0.120 kva=15.0 %r=1.300000
~ wdg=3 conn=w kv=0.120 kva=15.0 %r=1.300000
new Xfmrcode.3E_69000/12470/12470_01 windings=3 phases=3 xhl=15.738880 xht=15.738880 xlt=32.003048 %imag=0.684 %noloadloss=0.150
~ wdg=1 conn=w kv=69.000 kva=30000.0 %r=0.066667
~ wdg=2 conn=w kv=12.470 kva=15000.0 %r=0.600000
~ wdg=3 conn=w kv=12.470 kva=15000.0 %r=0.600000
new Xfmrcode.2E_7200/240_01 windings=2 phases=1 xhl=1.600005 %imag=0.000 %noloadloss=0.000
~ wdg=1 conn=w kv=12.470 kva=10.0 %r=0.700000
~ wdg=2 conn=w kv=0.240 kva=10.0 %r=0.700000

new Storage.Indiv_Res_Battery phases=2 bus1=e1.1.2 conn=w kva=25.000 kwrated=21.000 kv=0.240 kwhrated=50.000 kwhstored=30.000 state=discharging vminpu=0.6667 LimitCurrent=yes %charge=47.62 %discharge=47.62 kvarMax=13.000 kvarMaxAbs=13.000 pf=0.9806

new Load.Aggregate_C_Ph_Load phases=2 bus1=g3.1.2 conn=w kw=116.000 kvar=46.000 numcust=1 kv=0.208 model=1
new Load.G_and_G_Res_Load phases=2 bus1=d2.2.3 conn=w kw=19.000 kvar=7.600 numcust=1 kv=0.208 model=1
new Load.Indiv_Res_120/240_Load phases=2 bus1=e1.1.2 conn=w kw=19.200 kvar=7.600 numcust=1 kv=0.208 model=1
new Load.Aggregate_A_Ph_Load phases=2 bus1=g1.2.1 conn=w kw=58.000 kvar=24.000 numcust=1 kv=0.208 model=1
new Load.G_and_G_Comm_Load phases=3 bus1=d2.1.2.3 conn=d kw=25.000 kvar=10.000 numcust=1 kv=0.240 model=1
new Load.Aggregate_B_Ph_Load phases=2 bus1=g2.2.1 conn=w kw=76.000 kvar=30.000 numcust=1 kv=0.208 model=1
new Load.Box_Store_Load phases=3 bus1=b1.1.2.3 conn=w kw=36.000 kvar=14.000 numcust=1 kv=0.480 model=1

new Line.G_and_G_Sw phases=3 bus1=d3.2.3.1 bus2=d2.2.3.1 switch=y r1=1e-4 r0=1e-4 x1=0 x0=0 c1=0 c0=0 // CIM LoadBreakSwitch
~ normamps=400.00
  close Line.G_and_G_Sw 1
new Line.Indiv_Res_Sw phases=2 bus1=e1.2.1 bus2=e2.2.1 switch=y r1=1e-4 r0=1e-4 x1=0 x0=0 c1=0 c0=0 // CIM LoadBreakSwitch
~ normamps=150.00
  close Line.Indiv_Res_Sw 1

new Line.Cutout_L3 phases=3 bus1=c.2.1.3 bus2=h.2.1.3 switch=y r1=1e-4 r0=1e-4 x1=0 x0=0 c1=0 c0=0 // CIM Fuse
~ normamps=200.00
  close Line.Cutout_L3 1
  new Fuse.Cutout_L3 MonitoredObj=Line.Cutout_L3 RatedCurrent=200.00
new Line.Cutout_L4 phases=1 bus1=d.2 bus2=d1.2 switch=y r1=1e-4 r0=1e-4 x1=0 x0=0 c1=0 c0=0 // CIM Fuse
~ normamps=100.00
  close Line.Cutout_L4 1
  new Fuse.Cutout_L4 MonitoredObj=Line.Cutout_L4 RatedCurrent=100.00
new Line.Cap_A1_Fuse phases=3 bus1=i.1.3.2 bus2=i1.1.3.2 switch=y r1=1e-4 r0=1e-4 x1=0 x0=0 c1=0 c0=0 // CIM Fuse
~ normamps=100.00
  close Line.Cap_A1_Fuse 1
  new Fuse.Cap_A1_Fuse MonitoredObj=Line.Cap_A1_Fuse RatedCurrent=100.00

new Line.Rec_A1 phases=3 bus1=c.2.1.3 bus2=i.2.1.3 switch=y r1=1e-4 r0=1e-4 x1=0 x0=0 c1=0 c0=0 // CIM Recloser
~ normamps=600.00
  close Line.Rec_A1 1
  new Recloser.Rec_A1 MonitoredObj=Line.Rec_A1 PhaseTrip=20000.0 GroundTrip=10000.0  state=closed

new Line.FBkr_A phases=3 bus1=j.3.2.1 bus2=Feeder_A_CN.3.2.1 switch=y r1=1e-4 r0=1e-4 x1=0 x0=0 c1=0 c0=0 // CIM Breaker
~ normamps=1200.00
  close Line.FBkr_A 1
  new Relay.FBkr_A MonitoredObj=Line.FBkr_A Type=Current Delay=0.1 PhaseTrip=20000.0 GroundTrip=10000.0 state=closed

new Line.L1 phases=3 bus1=Feeder_A_CN.1.2.3 bus2=b.1.2.3 length=3280.840 linecode=3P_01 units=ft
new Line.L2 phases=3 bus1=b.1.2.3 bus2=c.1.2.3 length=3280.840 linecode=3P_01 units=ft
new Line.L3 phases=3 bus1=h.1.2.3 bus2=d.1.2.3 length=3280.840 linecode=3P_01 units=ft

new Line.L4 phases=1 bus1=d1.2 bus2=e.2 length=3280.8 spacing=PN_01_B units=ft
~ wires=[Linnet,Penguin]
new Line.L5 phases=3 bus1=i.1.2.3 bus2=f.1.2.3 length=3280.8 spacing=PPPN_01_ABC units=ft
~ wires=[Hawk,Hawk,Hawk,Linnet]
new Line.L6 phases=3 bus1=f1.1.2.3 bus2=g.1.2.3 length=3280.8 spacing=PPPN_01_ABC units=ft
~ wires=[Hawk,Hawk,Hawk,Linnet]

new Transformer.Xf3_1 bank=Xf3 xfmrcode=3E_69000/12470/12470_01
~ wdg=1 bus=j1.1.2.3.0
~ wdg=2 bus=j.1.2.3.0
~ wdg=3 bus=j2.1.2.3.0
new Transformer.Xf2_1 bank=Xf2 xfmrcode=2E_12470/480_01
~ wdg=1 bus=b.1.2.3.0
~ wdg=2 bus=b1.1.2.3.0
new Transformer.Xf1_1 bank=Xf1 xfmrcode=3E_7200/120/120_02
~ wdg=1 bus=e.2.0
~ wdg=2 bus=e2.1.0
~ wdg=3 bus=e2.0.2
new Transformer.Xf4_BA bank=Xf4 xfmrcode=2E_7200/240_01
~ wdg=1 bus=d.2.1 conn=d
~ wdg=2 bus=d3.2.1 conn=d
new Transformer.Xf4_CB bank=Xf4 xfmrcode=3E_7200/120/120_01
~ wdg=1 bus=d.3.2 conn=d
~ wdg=2 bus=d3.3.0
~ wdg=3 bus=d3.0.2
new Transformer.Xf6a_1 bank=Xf6a xfmrcode=3E_7200/120/120_02
~ wdg=1 bus=g.1.0
~ wdg=2 bus=g1.1.0
~ wdg=3 bus=g1.0.2
new Transformer.Xf5_3 bank=Xf5 xfmrcode=2E_7200/7200_01
~ wdg=1 bus=f.3
~ wdg=2 bus=f1.3
new Transformer.Xf6c_1 bank=Xf6c xfmrcode=3E_7200/120/120_02
~ wdg=1 bus=g.3.0
~ wdg=2 bus=g3.1.0
~ wdg=3 bus=g3.0.2
new Transformer.Xf5_2 bank=Xf5 xfmrcode=2E_7200/7200_01
~ wdg=1 bus=f.2
~ wdg=2 bus=f1.2
new Transformer.Xf6b_1 bank=Xf6b xfmrcode=3E_7200/120/120_02
~ wdg=1 bus=g.2.0
~ wdg=2 bus=g2.1.0
~ wdg=3 bus=g2.0.2
new Transformer.Xf5_1 bank=Xf5 xfmrcode=2E_7200/7200_01
~ wdg=1 bus=f.1
~ wdg=2 bus=f1.1

new RegControl.rtc_Xf5_1 transformer=Xf5_1 winding=2 TapNum=0 vreg=120.00 band=3.00 ptratio=60.00 ctprim=100.00 delay=15.00 tapdelay=2.00 vlimit=127.00
edit transformer.Xf5_1 wdg=2 tap=1.000000
new RegControl.rtc_Xf5_2 transformer=Xf5_2 winding=2 TapNum=0 vreg=120.00 band=3.00 ptratio=60.00 ctprim=100.00 delay=15.00 tapdelay=2.00 vlimit=127.00
edit transformer.Xf5_2 wdg=2 tap=1.000000
new RegControl.rtc_Xf5_3 transformer=Xf5_3 winding=2 TapNum=0 vreg=120.00 band=3.00 ptratio=60.00 ctprim=100.00 delay=15.00 tapdelay=2.00 vlimit=127.00
edit transformer.Xf5_3 wdg=2 tap=1.000000
new RegControl.rtc_Xf3_1_3 transformer=Xf3_1 winding=3 TapNum=0 vreg=7200.00 band=180.00 ptratio=1.00 vlimit=7632.00 ptphase=2
edit transformer.Xf3_1 wdg=3 tap=1.000000
new RegControl.rtc_Xf3_1_2 transformer=Xf3_1 winding=2 TapNum=0 vreg=7200.00 band=180.00 ptratio=1.00 vlimit=7632.00 ptphase=2
edit transformer.Xf3_1 wdg=2 tap=1.000000
new RegControl.rtc_Xf2_1_1 transformer=Xf2_1 winding=1 TapNum=0
edit transformer.Xf2_1 wdg=1 tap=1.000000

new Capacitor.Cap_A1 phases=3 bus1=i1.1.3.2 conn=w kv=12.47 kvar=622.00 states=[1]
new CapControl.Cap_A1 capacitor=Cap_A1 type=voltage on=7050.00 off=7350.00 delay=20.00 delayoff=20.00 element=capacitor.Cap_A1 terminal=1 ptratio=1 ptphase=3

set voltagebases=[69.000 0.480 0.208 12.470 0.240 ]

calcv
set loadmult = 1.0
buscoords testing_busxy.dss
uuids testing_uuid.dss

